*SPEF "IEEE 1481-1998"
*DESIGN "counter"
*DATE "Sat Jul 13 14:39:55 2024"
*VENDOR "Cadence Design Systems, Inc."
*PROGRAM "Innovus"
*VERSION "20.14-s095_1"
*DESIGN_FLOW "PIN_CAP NONE" "NAME_SCOPE LOCAL"
*DIVIDER /
*DELIMITER :
*BUS_DELIMITER []
*T_UNIT 1 NS
*C_UNIT 1 PF
*R_UNIT 1 OHM
*L_UNIT 1 HENRY

// MMMC spef file for corner 'RC_CORNERS'

*NAME_MAP

*1 clk
*2 m
*3 rst
*4 count[7]
*5 count[6]
*6 count[5]
*7 count[4]
*8 count[3]
*9 count[2]
*10 count[1]
*11 count[0]
*12 n_0
*13 n_1
*14 n_2
*15 n_4
*16 n_10
*17 n_13
*18 n_14
*19 n_15
*20 n_16
*21 n_18
*22 n_19
*23 n_20
*24 n_21
*25 n_22
*26 n_23
*27 n_24
*28 n_25
*29 n_26
*30 n_27
*31 n_28
*32 n_29
*33 n_30
*34 n_31
*35 n_32
*36 n_33
*37 n_34
*38 count_reg\[7\]
*39 count_reg\[5\]
*40 count_reg\[6\]
*41 g618__2398
*42 g620__5107
*43 g623__6260
*44 count_reg\[4\]
*45 g622__4319
*46 count_reg\[3\]
*47 g625__8428
*48 g626__5526
*49 g627__6783
*50 g631__3680
*51 g629__1617
*52 g630__2802
*53 count_reg\[1\]
*54 g632__1705
*55 g635__5122
*56 g633__8246
*57 g634__7098
*58 g636__6131
*59 g637__1881
*60 g639__5115
*61 g638__7482
*62 g640__4733
*63 g642
*64 g651
*65 g647
*66 g656
*67 g648
*68 count_reg\[0\]
*69 count_reg\[2\]


*PORTS

*1 I *C 0 18.415
*2 I *C 0 16.095
*3 I *C 0 18.415
*4 O *C 24.215 0
*5 O *C 40.02 15.515
*6 O *C 40.02 20.735
*7 O *C 23.925 38.57
*8 O *C 15.805 38.57
*9 O *C 0 19.865
*10 O *C 0 15.805
*11 O *C 0 15.225


*D_NET *1 0.00750525

*CONN
*I *46:CK I *C 10.875 27.115 *L 0.00176 *D SDFFRHQX1
*I *69:CK I *C 14.645 21.895 *L 0.00171 *D DFFRX1
*I *39:CK I *C 18.995 19.285 *L 0.00172 *D DFFRHQX1
*I *68:CK I *C 12.035 11.455 *L 0.00171 *D DFFRX1
*I *53:CK I *C 13.195 14.065 *L 0.00176 *D SDFFRHQX1
*I *38:CK I *C 19.285 11.455 *L 0.00176 *D SDFFRHQX1
*P *1 I *C 0 18.415 *L 0
*I *40:CK I *C 21.025 16.675 *L 0.00176 *D SDFFRHQX1
*I *44:CK I *C 19.865 24.505 *L 0.00176 *D SDFFRHQX1

*CAP
1 *1:1 4.03837e-05
2 *1:2 9.24637e-05
3 *46:CK 6.02775e-06
4 *1:4 9.31637e-05
5 *1:5 0.000296781
6 *1:6 0.00042967
7 *1:7 0.00018271
8 *1:8 0.000179767
9 *1:9 0.000300833
10 *1:10 0.000420953
11 *1:11 0.000179067
12 *1:12 0.000593523
13 *1:13 0.000418957
14 *1:14 0.000532806
15 *1:15 3.6894e-05
16 *1:16 0.00058786
17 *1:17 0.000167945
18 *1:18 9.93721e-05
19 *1:19 0.000147609
20 *1:20 3.6894e-05
21 *69:CK 2.538e-06
22 *1:23 6.4449e-05
23 *1:24 0.00045386
24 *1:25 9.86721e-05
25 *1:26 0.000448487
26 *39:CK 2.538e-06
27 *1:29 4.98214e-05
28 *1:30 0.000436332
29 *1:31 1.9366e-05
30 *1:32 4.03837e-05
31 *1:33 0.000315599
32 *1:34 0.000167945
33 *1:35 4.98214e-05
34 *1:36 4.03837e-05
35 *68:CK 2.538e-06
36 *53:CK 6.02775e-06
37 *1:41 9.93721e-05
38 *1:42 5.1884e-05
39 *1:43 5.1135e-05
40 *38:CK 6.02775e-06
41 *1:46 9.86721e-05
42 *1:48 2.28558e-05
43 *1 1.6079e-05
44 *1:50 4.9701e-05
45 *40:CK 6.02775e-06
46 *1:53 3.82008e-05
47 *44:CK 2.28558e-05

*RES
1 *1:53 *44:CK 1.4
2 *1:50 *1:53 0.0621429
3 *1:48 *40:CK 1.4
4 *1:48 *1:51 0.147857
5 *1:46 *1:50 1.4
6 *1:43 *1 0.0621429
7 *1:42 *1:48 1.4
8 *1:42 *1:47 0.147857
9 *1:41 *1:46 0.248571
10 *1:36 *38:CK 1.4
11 *1:36 *1:44 0.122143
12 *1:35 *1:43 1.4
13 *1:34 *1:42 1.4
14 *1:33 *1:41 1.4
15 *1:32 *53:CK 1.4
16 *1:32 *1:39 0.122143
17 *1:31 *68:CK 1.4
18 *1:31 *1:37 0.147857
19 *1:30 *1:36 1.4
20 *1:29 *1:35 0.0621429
21 *1:26 *1:34 0.559286
22 *1:26 *1:33 1.18071
23 *1:25 *1:32 1.4
24 *1:24 *1:31 1.4
25 *1:24 *1:30 1.55357
26 *1:23 *1:29 1.4
27 *1:20 *39:CK 1.4
28 *1:20 *1:27 0.147857
29 *1:19 *1:26 1.4
30 *1:18 *1:25 0.248571
31 *1:17 *1:24 1.4
32 *1:16 *1:23 0.124286
33 *1:15 *69:CK 1.4
34 *1:15 *1:21 0.147857
35 *1:14 *1:20 1.4
36 *1:14 *1:19 0.435
37 *1:13 *1:18 1.4
38 *1:13 *1:17 0.559286
39 *1:12 *1:16 2.36143
40 *1:11 *1:15 1.4
41 *1:10 *1:14 1.49143
42 *1:9 *1:13 1.05643
43 *1:9 *1:12 1.4
44 *1:8 *1:11 0.559286
45 *1:7 *1:10 1.4
46 *1:7 *1:9 0.0621429
47 *1:6 *1:8 1.4
48 *1:6 *1:7 0.559286
49 *1:5 *1:6 1.11857
50 *1:4 *1:5 1.4
51 *1:2 *1:4 0.248571
52 *1:1 *46:CK 1.4
53 *1:1 *1:2 1.4
54 *1:0 *1:1 0.122143
*END

*D_NET *2 0.00267466

*CONN
*I *61:A I *C 11.455 16.965 *L 0.00259 *D NOR3X1
*I *62:A I *C 12.325 16.965 *L 0.00264 *D NAND3X1
*I *64:A I *C 17.845 16.7375 *L 0.00163 *D INVXL
*P *2 I *C 0 16.095 *L 0
*I *53:SI I *C 21.025 14.065 *L 0.00276 *D SDFFRHQX1

*CAP
1 *2:2 0.000548077
2 *61:A 4.21598e-05
3 *2:4 0.000337278
4 *2:5 0.000519971
5 *62:A 4.21598e-05
6 *2:7 0.000477811
7 *2:8 4.0299e-05
8 *2:9 0.000168639
9 *2:10 4.0299e-05
10 *2:11 4.0299e-05
11 *2:12 6.7165e-05
12 *2:13 4.0299e-05
13 *2:14 1.40533e-05
14 *2:15 8.0598e-05
15 *2 1.40533e-05
16 *2:18 0.000107464
17 *2:19 9.4031e-05

*RES
1 *2:19 *53:SI 1.4
2 *2:18 *2:19 0.870014
3 *2:15 *2:18 0.124288
4 *2:14 *2 0.124283
5 *2:13 *64:A 1.4
6 *2:12 *2:15 0.621439
7 *2:11 *2:14 1.4
8 *2:10 *2:13 0.372863
9 *2:9 *2:12 1.4
10 *2:8 *2:11 0.372863
11 *2:7 *2:10 1.4
12 *2:7 *2:9 1.4914
13 *2:5 *2:8 1.4
14 *2:4 *2:7 2.73424
15 *61:A *62:A 0.37285
16 *2:2 *2:5 4.59849
17 *2:2 *2:4 0.248567
18 *2:1 *61:A 1.4
19 *2:1 *2:2 1.4
20 *2:0 *2:1 0.220714
*END

*D_NET *3 0.00627274

*CONN
*P *3 I *C 0 18.415 *L 0
*I *53:RN I *C 14.935 14.065 *L 0.00439 *D SDFFRHQX1
*I *68:RN I *C 13.195 11.455 *L 0.00355 *D DFFRX1
*I *40:RN I *C 22.765 16.675 *L 0.00439 *D SDFFRHQX1
*I *69:RN I *C 15.805 21.895 *L 0.00355 *D DFFRX1
*I *38:RN I *C 21.025 11.455 *L 0.00439 *D SDFFRHQX1
*I *46:RN I *C 12.615 27.115 *L 0.00439 *D SDFFRHQX1
*I *44:RN I *C 21.605 24.505 *L 0.00439 *D SDFFRHQX1
*I *39:RN I *C 20.735 19.285 *L 0.00443 *D DFFRHQX1

*CAP
1 *3:0 0.000140533
2 *3 2.81065e-05
3 *3:2 0.000112426
4 *3:3 0.000147763
5 *3:4 0.000147763
6 *3:5 0.000534024
7 *3:6 0.000590237
8 *3:7 0.000323225
9 *3:8 5.3732e-05
10 *3:9 0.000379438
11 *3:10 6.7165e-05
12 *3:11 8.0598e-05
13 *3:12 0.000112426
14 *3:13 6.7165e-05
15 *3:14 8.0598e-05
16 *3:15 2.6866e-05
17 *3:16 0.000120897
18 *3:17 9.4031e-05
19 *3:18 9.4031e-05
20 *3:19 0.000335825
21 *3:21 9.4031e-05
22 *3:22 9.4031e-05
23 *3:23 0.000107464
24 *3:24 0.000349258
25 *3:27 8.0598e-05
26 *3:28 9.4031e-05
27 *3:31 0.000187415
28 *3:32 0.000147116
29 *3:33 0.000365648
30 *3:34 0.000268142
31 *3:35 9.75062e-05
32 *3:36 5.30849e-05
33 *3:37 3.64161e-05
34 *3:38 7.99509e-05
35 *3:39 3.64161e-05
36 *3:40 4.0299e-05
37 *3:41 0.000214928
38 *3:43 2.6866e-05
39 *3:44 0.000214928
40 *3:46 8.0598e-05
41 *3:47 6.7165e-05

*RES
1 *3:47 *39:RN 1.4
2 *3:46 *3:47 0.621439
3 *3:44 *3:46 0.124288
4 *3:43 *44:RN 1.4
5 *3:41 *3:44 1.86432
6 *3:40 *3:43 0.248575
7 *3:39 *46:RN 1.4
8 *3:38 *3:41 0.124288
9 *3:38 *3:40 0.124288
10 *3:37 *3:39 0.372859
11 *3:36 *3:38 0.49715
12 *3:35 *3:37 1.4
13 *3:34 *3:36 1.4
14 *3:33 *3:35 0.99431
15 *3:33 *3:34 2.73435
16 *3:32 *3:33 1.4
17 *3:31 *3:32 1.36716
18 *3:28 *3:31 0.372863
19 *3:27 *38:RN 1.4
20 *3:24 *69:RN 1.4
21 *3:24 *3:28 0.497151
22 *3:23 *3:27 0.745726
23 *3:22 *40:RN 1.4
24 *3:21 *68:RN 1.4
25 *3:19 *3:24 2.73433
26 *3:18 *3:23 0.248575
27 *3:17 *3:22 0.870014
28 *3:16 *3:21 0.870014
29 *3:15 *53:RN 1.4
30 *3:14 *3:19 0.372863
31 *3:13 *3:18 0.621439
32 *3:12 *3:17 1.4
33 *3:11 *3:16 0.248575
34 *3:10 *3:15 0.248575
35 *3:10 *3:14 0.372863
36 *3:9 *3:13 1.4
37 *3:9 *3:12 0.994268
38 *3:8 *3:11 0.497151
39 *3:7 *3:10 1.4
40 *3:7 *3:9 2.36139
41 *3:6 *3:8 1.4
42 *3:6 *3:7 0.497134
43 *3:5 *3:6 4.72277
44 *3:4 *3:5 1.4
45 *3:3 *3:4 1.36716
46 *3:2 *3:3 1.4
47 *3:0 *3:2 0.994268
48 *3:0 *3 0.248567
*END

*D_NET *4 0.00200341

*CONN
*I *38:Q O *C 18.705 12.035 *L 0 *D SDFFRHQX1
*P *4 O *C 24.215 0 *L 0
*I *38:D I *C 25.665 11.745 *L 0.00276 *D SDFFRHQX1
*I *63:A I *C 28.285 11.5175 *L 0.00163 *D INVXL

*CAP
1 *4:3 0.000267012
2 *4:4 0.000351331
3 *4:5 0.000185167
4 *4:6 1.40533e-05
5 *4:7 0.00013992
6 *4:8 4.0299e-05
7 *4:9 0.000470155
8 *4:10 2.50189e-05
9 *4:11 4.0299e-05
10 *4 0.000470155

*RES
1 *4:13 *63:A 1.4
2 *4:13 *4:15 0.03
3 *4:11 *38:D 1.4
4 *4:10 *4:13 1.4
5 *4:9 *4 4.35007
6 *4:8 *4:11 0.372863
7 *4:7 *4:10 0.248578
8 *4:6 *4:9 1.4
9 *4:5 *4:8 1.4
10 *4:5 *4:7 1.11859
11 *4:4 *4:6 0.124283
12 *4:4 *4:5 0.621417
13 *4:3 *4:4 2.36139
14 *4:1 *4:3 1.4
15 *4:1 *38:Q 1.4
16 *4:0 *4:1 0.220714
*END

*D_NET *5 0.00222938

*CONN
*I *40:Q O *C 20.445 17.255 *L 0 *D SDFFRHQX1
*I *65:A I *C 22.185 13.775 *L 0.00273 *D CLKINVX1
*P *5 O *C 40.02 15.515 *L 0
*I *40:D I *C 27.405 16.965 *L 0.00276 *D SDFFRHQX1
*I *42:A0 I *C 27.405 14.065 *L 0.00265 *D OAI22X1

*CAP
1 *5:3 8.43196e-05
2 *5:4 0.000330331
3 *5:5 0.000671333
4 *5:6 0.000107464
5 *5:7 0.000450341
6 *5:8 0.000126477
7 *5:9 0.000107464
8 *5:10 0.000125095
9 *5:11 3.79432e-05
10 *5:12 8.8534e-05
11 *5 0.000100076

*RES
1 *5:12 *42:A0 1.4
2 *5:11 *40:D 1.4
3 *5:10 *5 0.99431
4 *5:9 *65:A 1.4
5 *5:8 *5:12 0.870003
6 *5:8 *5:11 0.372859
7 *5:7 *5:10 0.248578
8 *5:6 *5:9 0.994302
9 *5:5 *5:8 1.4
10 *5:5 *5:7 4.22582
11 *5:4 *5:6 1.4
12 *5:4 *5:5 2.23713
13 *5:3 *5:4 0.745701
14 *5:1 *5:3 1.4
15 *5:1 *40:Q 1.4
16 *5:0 *5:1 0.220714
*END

*D_NET *6 0.00265014

*CONN
*I *39:Q O *C 18.415 18.705 *L 0 *D DFFRHQX1
*I *41:A1 I *C 24.505 21.895 *L 0.00169 *D OAI211XL
*I *48:A I *C 28.855 21.895 *L 0.00173 *D OR2X1
*I *47:B I *C 28.855 18.995 *L 0.00284 *D NAND2BX1
*P *6 O *C 40.02 20.735 *L 0
*I *45:A I *C 27.695 21.895 *L 0.00155 *D NAND3XL

*CAP
1 *6:1 1.3433e-05
2 *6:2 5.3732e-05
3 *6:3 4.0299e-05
4 *6:4 0.000281065
5 *6:5 0.000477198
6 *6:6 0.000458832
7 *6:7 5.3732e-05
8 *6:8 0.000287718
9 *6:9 0.000126477
10 *6:10 5.3732e-05
11 *6:11 0.000125095
12 *6:12 7.58863e-05
13 *6:13 7.58863e-05
14 *6:15 0.000125095
15 *6:16 6.32386e-05
16 *6:19 0.000125095
17 *6:20 6.32386e-05
18 *6 0.000100076
19 *6:22 2.52954e-05
20 *6:23 1.25095e-05
21 *45:A 1.25095e-05

*RES
1 *6:23 *45:A 0.124289
2 *6:22 *6:23 1.4
3 *6:20 *6:22 0.248572
4 *6:19 *6 0.99431
5 *6:16 *6:20 0.372859
6 *6:15 *6:19 0.248578
7 *6:13 *47:B 1.4
8 *6:12 *48:A 1.4
9 *6:12 *6:16 0.248572
10 *6:11 *6:15 0.99431
11 *6:10 *41:A1 1.4
12 *6:9 *6:13 0.745717
13 *6:9 *6:12 0.497145
14 *6:8 *6:11 0.248578
15 *6:7 *6:10 0.497151
16 *6:6 *6:9 1.4
17 *6:6 *6:8 2.61006
18 *6:5 *6:7 1.4
19 *6:5 *6:6 1.8643
20 *6:4 *6:5 2.48567
21 *6:3 *6:4 1.4
22 *6:2 *6:3 0.372863
23 *6:1 *6:2 0.124288
24 *39:Q *6:1 1.4
*END

*D_NET *7 0.00215481

*CONN
*I *44:D I *C 26.245 24.215 *L 0.00276 *D SDFFRHQX1
*P *7 O *C 23.925 38.57 *L 0
*I *44:Q O *C 19.285 23.925 *L 0 *D SDFFRHQX1
*I *66:A I *C 26.245 27.405 *L 0.00273 *D CLKINVX1

*CAP
1 *7:2 0.000111654
2 *7:4 0.000336506
3 *7:5 0.000224852
4 *7:6 0.000154077
5 *7:7 4.0299e-05
6 *7:8 0.00059107
7 *7:9 4.0299e-05
8 *7 0.000436993
9 *7:11 7.31296e-05
10 *7:13 8.53179e-05
11 *7:14 3.64007e-05
12 *66:A 2.42124e-05

*RES
1 *7:14 *66:A 0.248578
2 *7:13 *7:14 0.124289
3 *7:11 *7:13 0.745732
4 *7:9 *44:Q 1.4
5 *7:8 *7:11 1.4
6 *7:8 *7 4.4743
7 *7:7 *7:9 0.372863
8 *7:6 *7:8 1.49144
9 *7:5 *7:7 1.4
10 *7:4 *7:6 1.4
11 *7:4 *7:5 1.98854
12 *7:2 *7:4 0.99427
13 *7:1 *44:D 1.4
14 *7:1 *7:2 1.4
15 *7:0 *7:1 0.220714
*END

*D_NET *8 0.00268467

*CONN
*I *54:A I *C 12.905 24.505 *L 0.00157 *D NAND2XL
*P *8 O *C 15.805 38.57 *L 0
*I *46:Q O *C 10.295 27.695 *L 0 *D SDFFRHQX1
*I *46:D I *C 17.255 27.405 *L 0.00276 *D SDFFRHQX1
*I *56:A I *C 18.125 24.215 *L 0.00162 *D NOR2XL
*I *67:A I *C 19.875 27.1775 *L 0.00163 *D INVXL

*CAP
1 *8:2 2.81065e-05
2 *8:4 0.000154586
3 *8:5 0.000196746
4 *8:6 9.83728e-05
5 *8:7 0.000238905
6 *8:8 9.20896e-05
7 *8:9 0.000112426
8 *8:10 0.000550771
9 *8:11 9.20896e-05
10 *8:12 4.21598e-05
11 *8:13 0.00010164
12 *8 0.000550771
13 *8:16 4.0299e-05
14 *8:17 0.00010164
15 *8:18 4.0299e-05
16 *8:19 2.43765e-05
17 *8:22 3.65648e-05
18 *8:23 9.75062e-05
19 *8:24 8.53179e-05

*RES
1 *8:25 *67:A 1.4
2 *8:25 *8:26 0.03
3 *8:24 *8:25 1.4
4 *8:23 *8:24 0.870021
5 *8:22 *8:23 0.124289
6 *8:19 *8:22 0.248578
7 *8:18 *56:A 1.4
8 *8:17 *46:D 1.4
9 *8:17 *8:19 1.4
10 *8:16 *8:18 0.372863
11 *8:13 *8:17 0.994295
12 *8:12 *8:16 1.4
13 *8:11 *46:Q 1.4
14 *8:10 *8 5.59288
15 *8:9 *8:13 1.4
16 *8:9 *8:12 0.37285
17 *8:8 *8:11 0.870012
18 *8:7 *8:10 1.4
19 *8:7 *8:9 0.621417
20 *8:6 *8:8 1.4
21 *8:5 *8:7 1.4914
22 *8:4 *8:6 0.869984
23 *8:4 *8:5 0.248567
24 *8:2 *8:4 0.248567
25 *8:1 *54:A 1.4
26 *8:1 *8:2 1.4
27 *8:0 *8:1 0.220714
*END

*D_NET *9 0.00164216

*CONN
*P *9 O *C 0 19.865 *L 0
*I *57:B I *C 11.745 18.995 *L 0.00276 *D NAND3BX1
*I *51:A1 I *C 13.775 19.285 *L 0.00169 *D OAI211XL
*I *69:Q O *C 14.065 21.315 *L 0 *D DFFRX1

*CAP
1 *9 0.000534024
2 *9:1 0.000632397
3 *9:2 9.83728e-05
4 *9:3 4.0299e-05
5 *9:4 9.4031e-05
6 *9:5 5.3732e-05
7 *9:6 8.0598e-05
8 *9:7 4.0299e-05
9 *9:8 1.3433e-05
10 *9:9 1.3433e-05
11 *9:10 1.3433e-05
12 *9:12 1.40533e-05
13 *69:Q 1.40533e-05

*RES
1 *9:12 *69:Q 0.124283
2 *9:10 *51:A1 1.4
3 *9:9 *9:12 1.4
4 *9:8 *57:B 1.4
5 *9:7 *9:10 0.124288
6 *9:6 *9:9 0.124288
7 *9:5 *9:8 0.124288
8 *9:4 *9:7 0.248575
9 *9:4 *9:6 0.621439
10 *9:3 *9:5 0.372863
11 *9:2 *9:4 1.4
12 *9:1 *9:3 1.4
13 *9:1 *9:2 0.869984
14 *9 *9:1 4.72277
*END

*D_NET *10 0.00191578

*CONN
*I *60:S0 I *C 15.515 16.675 *L 0.00372 *D MXI2XL
*I *62:C I *C 12.905 16.965 *L 0.00285 *D NAND3X1
*I *53:Q O *C 12.615 13.485 *L 0 *D SDFFRHQX1
*I *61:C I *C 10.875 16.675 *L 0.00278 *D NOR3X1
*P *10 O *C 0 15.805 *L 0

*CAP
1 *10:2 9.83728e-05
2 *10:4 9.83728e-05
3 *10:5 4.0299e-05
4 *10:6 2.6866e-05
5 *10:7 9.4031e-05
6 *10:9 8.0598e-05
7 *53:Q 8.43196e-05
8 *10:11 0.000590237
9 *10:12 1.40533e-05
10 *10:13 0.000491864
11 *10:14 8.0598e-05
12 *10:15 5.3732e-05
13 *10:16 8.0598e-05
14 *10:17 5.3732e-05
15 *10:19 1.40533e-05
16 *10 1.40533e-05

*RES
1 *10:19 *10 0.124283
2 *10:17 *10:19 1.4
3 *10:16 *61:C 1.4
4 *10:15 *10:17 0.497151
5 *10:14 *10:16 0.745726
6 *10:13 *10:15 1.4
7 *10:12 *10:14 1.4
8 *10:11 *10:13 4.34992
9 *10:11 *10:12 0.124283
10 *53:Q *10:11 0.745701
11 *10:9 *53:Q 1.4
12 *10:7 *10:9 0.745726
13 *10:6 *62:C 1.4
14 *10:5 *10:7 0.124288
15 *10:5 *10:6 0.248575
16 *10:4 *10:5 1.4
17 *10:2 *10:4 0.869984
18 *10:1 *60:S0 1.4
19 *10:1 *10:2 1.4
20 *10:0 *10:1 0.220714
*END

*D_NET *11 0.00213939

*CONN
*I *62:B I *C 12.615 17.255 *L 0.00285 *D NAND3X1
*I *60:B I *C 15.22 16.335 *L 0.00164 *D MXI2XL
*I *61:B I *C 11.165 16.965 *L 0.00272 *D NOR3X1
*P *11 O *C 0 15.225 *L 0
*I *68:Q O *C 11.455 10.875 *L 0 *D DFFRX1

*CAP
1 *11:2 0.000154586
2 *11:4 0.000126479
3 *11:5 7.02663e-05
4 *11:6 2.6866e-05
5 *11:7 8.43196e-05
6 *11:8 2.6866e-05
7 *11:9 0.000449704
8 *11:11 8.0598e-05
9 *11:12 0.000449704
10 *11:13 2.6866e-05
11 *11:14 6.7165e-05
12 *11:15 0.000154586
13 *11:17 0.000161196
14 *11 0.000112426
15 *11:19 0.000147763

*RES
1 *11:19 *68:Q 1.4
2 *11:17 *11:19 1.36716
3 *11:15 *11 0.994268
4 *11:14 *11:17 0.124288
5 *11:13 *61:B 1.4
6 *11:12 *11:15 0.37285
7 *11:11 *11:14 0.497151
8 *11:11 *11:13 0.248575
9 *11:9 *11:12 3.60422
10 *11:9 *11:11 1.4
11 *11:8 *60:B 1.4
12 *11:7 *11:9 0.37285
13 *11:6 *11:8 0.248575
14 *11:5 *11:7 0.37285
15 *11:4 *11:6 1.4
16 *11:2 *11:5 0.248567
17 *11:2 *11:4 1.11855
18 *11:1 *62:B 1.4
19 *11:1 *11:2 1.4
20 *11:0 *11:1 0.03
*END

*D_NET *12 0.000218496

*CONN
*I *46:SI I *C 18.705 27.115 *L 0.00276 *D SDFFRHQX1
*I *67:Y O *C 20.2375 27.115 *L 0 *D INVXL

*CAP
1 *12:0 8.49708e-05
2 *12:1 8.49708e-05
3 *12:2 2.42774e-05
4 *12:3 2.42774e-05

*RES
1 *12:3 *67:Y 1.4
2 *12:2 *46:SI 1.4
3 *12:1 *12:3 0.248572
4 *12:0 *12:2 0.248572
5 *12:0 *12:1 0.621431
*END

*D_NET *13 0.000410433

*CONN
*I *64:Y O *C 18.2075 16.675 *L 0 *D INVXL
*I *53:D I *C 19.575 13.775 *L 0.00276 *D SDFFRHQX1

*CAP
1 *64:Y 7.02663e-05
2 *13:1 8.43196e-05
3 *13:2 1.40533e-05
4 *13:3 0.000120897
5 *13:4 0.000120897

*RES
1 *13:4 *53:D 1.4
2 *13:3 *13:4 1.11859
3 *13:2 *13:3 1.4
4 *13:1 *13:2 0.124283
5 *64:Y *13:1 0.621417
*END

*D_NET *14 0.000941688

*CONN
*I *40:SI I *C 28.855 16.675 *L 0.00276 *D SDFFRHQX1
*I *42:B0 I *C 26.245 13.775 *L 0.00262 *D OAI22X1
*I *65:Y O *C 22.5575 13.775 *L 0 *D CLKINVX1

*CAP
1 *14:2 0.000153973
2 *14:4 0.000153973
3 *14:5 0.000120897
4 *14:6 0.000120897
5 *14:7 9.76009e-05
6 *42:B0 4.13879e-05
7 *14:9 7.02663e-05
8 *14:10 9.83728e-05
9 *65:Y 8.43196e-05

*RES
1 *14:10 *65:Y 0.745701
2 *14:9 *14:10 0.124283
3 *14:7 *14:9 0.497134
4 *14:7 *42:B0 0.372853
5 *14:6 *14:7 1.4
6 *14:5 *14:6 1.11859
7 *14:4 *14:5 1.4
8 *14:2 *14:4 1.49145
9 *14:1 *40:SI 1.4
10 *14:1 *14:2 1.4
11 *14:0 *14:1 0.03
*END

*D_NET *15 0.000227659

*CONN
*I *38:SI I *C 27.115 11.455 *L 0.00276 *D SDFFRHQX1
*I *63:Y O *C 28.6475 11.455 *L 0 *D INVXL

*CAP
1 *15:0 8.8534e-05
2 *15:1 8.8534e-05
3 *15:2 2.52954e-05
4 *15:3 2.52954e-05

*RES
1 *15:3 *63:Y 1.4
2 *15:2 *38:SI 1.4
3 *15:1 *15:3 0.248572
4 *15:0 *15:2 0.248572
5 *15:0 *15:1 0.621431
*END

*D_NET *16 0.0013243

*CONN
*I *68:QN O *C 10.295 12.035 *L 0 *D DFFRX1
*I *68:D I *C 17.545 11.745 *L 0.00168 *D DFFRX1
*I *60:A I *C 16.385 16.675 *L 0.0017 *D MXI2XL

*CAP
1 *16:1 2.6866e-05
2 *16:2 2.6866e-05
3 *16:3 0.000351331
4 *16:4 0.000351331
5 *16:5 0.000188062
6 *16:6 0.000161196
7 *16:7 4.0299e-05
8 *16:8 5.3732e-05
9 *16:10 4.0299e-05
10 *16:11 4.21598e-05
11 *60:A 4.21598e-05

*RES
1 *16:11 *60:A 0.37285
2 *16:10 *16:11 1.4
3 *16:8 *16:10 0.372863
4 *16:7 *68:D 1.4
5 *16:6 *16:8 0.124288
6 *16:5 *16:7 0.372863
7 *16:5 *16:6 1.36716
8 *16:4 *16:5 1.4
9 *16:3 *16:4 3.10709
10 *16:2 *16:3 1.4
11 *16:1 *16:2 0.248575
12 *68:QN *16:1 1.4
*END

*D_NET *17 0.000801443

*CONN
*I *53:SE I *C 21.025 13.775 *L 0.00488 *D SDFFRHQX1
*I *60:Y O *C 16.095 17.255 *L 0 *D MXI2XL

*CAP
1 *17:2 0.000252959
2 *17:4 0.000252959
3 *17:5 0.000147763
4 *17:6 0.000147763

*RES
1 *17:6 *60:Y 1.4
2 *17:5 *17:6 1.36716
3 *17:4 *17:5 1.4
4 *17:2 *17:4 2.2371
5 *17:1 *53:SE 1.4
6 *17:1 *17:2 1.4
7 *17:0 *17:1 0.220714
*END

*D_NET *18 0.000483588

*CONN
*I *61:Y O *C 11.165 17.255 *L 0 *D NOR3X1
*I *57:AN I *C 10.875 18.995 *L 0.00178 *D NAND3BX1
*I *59:B I *C 11.165 21.895 *L 0.00167 *D NAND2XL

*CAP
1 *18:0 0.000107464
2 *18:1 1.3433e-05
3 *18:2 0.000161196
4 *18:4 8.0598e-05
5 *18:6 6.7165e-05
6 *18:7 5.3732e-05

*RES
1 *18:7 *59:B 1.4
2 *18:6 *18:7 0.497151
3 *18:4 *18:6 0.124288
4 *18:2 *57:AN 1.4
5 *18:2 *18:4 0.621439
6 *18:1 *61:Y 1.4
7 *18:0 *18:2 0.870014
8 *18:0 *18:1 0.124288
*END

*D_NET *19 0.000327354

*CONN
*I *59:A I *C 11.745 21.895 *L 0.00157 *D NAND2XL
*I *69:QN O *C 12.905 22.475 *L 0 *D DFFRX1
*I *58:A I *C 11.745 24.215 *L 0.00162 *D NOR2XL

*CAP
1 *59:A 5.6213e-05
2 *69:QN 5.6213e-05
3 *19:2 0.000107464
4 *19:3 0.000107464

*RES
1 *19:3 *58:A 1.4
2 *19:2 *19:3 0.994302
3 *59:A *19:2 1.4
4 *59:A *69:QN 0.497134
*END

*D_NET *20 0.000997764

*CONN
*I *57:C I *C 12.035 18.995 *L 0.00289 *D NAND3BX1
*I *58:B I *C 12.035 24.505 *L 0.00171 *D NOR2XL
*I *51:A0 I *C 13.46 19.3575 *L 0.00161 *D OAI211XL
*I *62:Y O *C 13.195 16.385 *L 0 *D NAND3X1

*CAP
1 *20:1 0.00026866
2 *20:2 2.6866e-05
3 *20:3 0.000255227
4 *20:4 2.6866e-05
5 *20:6 8.0598e-05
6 *20:7 9.4031e-05
7 *20:8 4.21598e-05
8 *20:9 9.4031e-05
9 *51:A0 4.21598e-05
10 *20:11 6.7165e-05

*RES
1 *20:11 *62:Y 1.4
2 *20:9 *20:11 0.621439
3 *20:8 *51:A0 0.37285
4 *20:7 *20:9 0.248575
5 *20:6 *20:8 1.4
6 *20:6 *20:7 0.621439
7 *20:4 *20:6 0.124288
8 *20:3 *58:B 1.4
9 *20:2 *20:4 0.124288
10 *20:1 *20:3 2.36147
11 *20:1 *20:2 0.124288
12 *57:C *20:1 1.4
*END

*D_NET *21 0.000217409

*CONN
*I *57:Y O *C 12.325 19.575 *L 0 *D NAND3BX1
*I *51:B0 I *C 14.065 19.285 *L 0.0017 *D OAI211XL

*CAP
1 *57:Y 2.81065e-05
2 *21:1 2.81065e-05
3 *21:2 5.3732e-05
4 *21:3 8.0598e-05
5 *21:4 2.6866e-05

*RES
1 *21:4 *51:B0 1.4
2 *21:3 *21:4 0.248575
3 *21:2 *21:3 0.497151
4 *21:1 *21:2 1.4
5 *57:Y *21:1 0.248567
*END

*D_NET *22 0.00140118

*CONN
*I *59:Y O *C 11.165 22.475 *L 0 *D NAND2XL
*I *51:C0 I *C 14.355 19.285 *L 0.0017 *D OAI211XL
*I *55:B I *C 17.545 24.215 *L 0.00284 *D NAND2BX1
*I *56:B I *C 18.415 24.505 *L 0.00171 *D NOR2XL

*CAP
1 *22:0 4.0299e-05
2 *22:1 4.0299e-05
3 *22:2 0.000182692
4 *22:3 1.40533e-05
5 *22:4 0.000337278
6 *59:Y 1.40533e-05
7 *22:6 0.000154586
8 *22:7 6.7165e-05
9 *22:8 0.00013433
10 *22:9 6.7165e-05
11 *22:10 0.000201495
12 *22:12 2.6866e-05
13 *22:13 8.0598e-05
14 *22:15 4.0299e-05

*RES
1 *22:15 *56:B 1.4
2 *22:13 *22:15 0.372863
3 *22:12 *55:B 1.4
4 *22:10 *22:13 0.372863
5 *22:10 *22:12 0.248575
6 *22:9 *51:C0 1.4
7 *22:8 *22:10 1.24288
8 *22:7 *22:9 0.621439
9 *22:6 *22:8 1.4
10 *22:4 *22:7 1.4
11 *22:4 *22:6 1.36712
12 *22:3 *59:Y 0.124283
13 *22:2 *22:4 1.61568
14 *22:1 *22:3 1.4
15 *22:0 *22:2 1.4
16 *22:0 *22:1 0.372863
*END

*D_NET *23 0.000550966

*CONN
*I *55:AN I *C 16.675 24.215 *L 0.00178 *D NAND2BX1
*I *54:B I *C 13.485 24.505 *L 0.00167 *D NAND2XL
*I *58:Y O *C 12.325 24.795 *L 0 *D NOR2XL

*CAP
1 *23:2 0.000154586
2 *23:4 0.000154586
3 *23:5 4.0299e-05
4 *23:6 9.4031e-05
5 *23:8 8.0598e-05
6 *23:9 2.6866e-05

*RES
1 *23:9 *58:Y 1.4
2 *23:8 *23:9 0.248575
3 *23:6 *23:8 0.497151
4 *23:5 *54:B 1.4
5 *23:5 *23:6 0.372863
6 *23:4 *23:5 1.4
7 *23:2 *23:4 1.36712
8 *23:1 *55:AN 1.4
9 *23:1 *23:2 1.4
10 *23:0 *23:1 0.220714
*END

*D_NET *24 0.00045123

*CONN
*I *55:Y O *C 17.545 23.635 *L 0 *D NAND2BX1
*I *46:SE I *C 18.705 27.405 *L 0.00488 *D SDFFRHQX1

*CAP
1 *24:1 0.000152783
2 *24:2 0.000201338
3 *24:3 7.28321e-05
4 *24:4 2.42774e-05

*RES
1 *24:4 *46:SE 1.4
2 *24:3 *24:4 0.248572
3 *24:2 *24:3 0.497145
4 *24:1 *24:2 1.49144
5 *55:Y *24:1 1.4
*END

*D_NET *25 0.00131176

*CONN
*I *56:Y O *C 18.705 24.795 *L 0 *D NOR2XL
*I *49:AN I *C 21.895 27.405 *L 0.00178 *D NAND2BX1
*I *52:B I *C 29.435 24.505 *L 0.00167 *D NAND2XL

*CAP
1 *25:1 4.0299e-05
2 *25:2 4.0299e-05
3 *25:3 0.000154586
4 *25:4 0.000489707
5 *25:5 0.000335122
6 *25:6 6.26349e-05
7 *25:7 1.26477e-05
8 *25:8 6.26349e-05
9 *25:9 6.32386e-05
10 *25:11 5.05909e-05

*RES
1 *25:11 *52:B 1.4
2 *25:9 *25:11 0.497145
3 *25:8 *49:AN 1.4
4 *25:7 *25:9 0.124286
5 *25:6 *25:8 0.621433
6 *25:5 *25:7 1.4
7 *25:4 *25:6 1.4
8 *25:4 *25:5 3.10714
9 *25:3 *25:4 1.36712
10 *25:2 *25:3 1.4
11 *25:1 *25:2 0.372863
12 *56:Y *25:1 1.4
*END

*D_NET *26 0.000720845

*CONN
*I *69:D I *C 20.155 22.185 *L 0.00168 *D DFFRX1
*I *51:Y O *C 14.065 19.865 *L 0 *D OAI211XL

*CAP
1 *26:2 0.000154586
2 *26:4 0.000154586
3 *26:5 0.000107464
4 *26:6 0.000107464
5 *26:7 9.83728e-05
6 *51:Y 9.83728e-05

*RES
1 *26:7 *51:Y 0.869984
2 *26:6 *26:7 1.4
3 *26:5 *26:6 0.994302
4 *26:4 *26:5 1.4
5 *26:2 *26:4 1.36712
6 *26:1 *69:D 1.4
7 *26:1 *26:2 1.4
8 *26:0 *26:1 0.220714
*END

*D_NET *27 0.00145319

*CONN
*I *54:Y O *C 13.485 23.925 *L 0 *D NAND2XL
*I *49:B I *C 22.765 27.405 *L 0.00284 *D NAND2BX1
*I *50:B I *C 22.185 22.185 *L 0.00165 *D OR2X1

*CAP
1 *54:Y 9.83728e-05
2 *27:1 9.83728e-05
3 *27:2 2.6866e-05
4 *27:3 2.6866e-05
5 *27:4 0.000281065
6 *27:5 0.000337278
7 *27:6 5.6213e-05
8 *27:7 6.7165e-05
9 *27:8 0.000168805
10 *27:9 6.7165e-05
11 *27:10 0.000168805
12 *27:11 2.81065e-05
13 *50:B 2.81065e-05

*RES
1 *27:11 *50:B 0.248567
2 *27:10 *49:B 1.4
3 *27:9 *27:11 1.4
4 *27:8 *27:10 1.61573
5 *27:7 *27:9 0.621439
6 *27:6 *27:8 1.4
7 *27:5 *27:7 1.4
8 *27:5 *27:6 0.497134
9 *27:4 *27:5 2.48567
10 *27:3 *27:4 1.4
11 *27:2 *27:3 0.248575
12 *27:1 *27:2 1.4
13 *54:Y *27:1 0.869984
*END

*D_NET *28 0.00123428

*CONN
*I *50:A I *C 23.055 21.895 *L 0.00173 *D OR2X1
*I *44:SI I *C 27.695 24.505 *L 0.00276 *D SDFFRHQX1
*I *52:A I *C 28.855 24.505 *L 0.00157 *D NAND2XL
*I *66:Y O *C 26.6175 27.405 *L 0 *D CLKINVX1

*CAP
1 *28:1 5.3732e-05
2 *28:2 5.3732e-05
3 *28:3 0.000216361
4 *28:4 0.000266399
5 *28:5 6.32386e-05
6 *28:6 5.00378e-05
7 *28:7 0.000113829
8 *28:8 6.32386e-05
9 *28:9 6.32386e-05
10 *28:11 6.32386e-05
11 *28:12 8.43605e-05
12 *28:14 7.17128e-05
13 *28:15 3.558e-05
14 *66:Y 3.558e-05

*RES
1 *28:15 *66:Y 0.372866
2 *28:14 *28:15 1.4
3 *28:12 *28:14 0.745729
4 *28:11 *52:A 1.4
5 *28:9 *28:12 0.124286
6 *28:8 *28:11 0.621431
7 *28:7 *44:SI 1.4
8 *28:7 *28:9 0.497145
9 *28:6 *28:8 1.4
10 *28:5 *28:7 0.621431
11 *28:4 *28:6 0.497155
12 *28:4 *28:5 1.4
13 *28:3 *28:4 1.98856
14 *28:2 *28:3 1.4
15 *28:1 *28:2 0.497151
16 *50:A *28:1 1.4
*END

*D_NET *29 0.000659106

*CONN
*I *49:Y O *C 22.765 27.985 *L 0 *D NAND2BX1
*I *44:SE I *C 27.695 24.215 *L 0.00488 *D SDFFRHQX1

*CAP
1 *49:Y 0.000109694
2 *29:1 0.000109694
3 *29:2 3.64161e-05
4 *29:3 3.64161e-05
5 *29:4 9.53724e-05
6 *29:5 9.53724e-05
7 *29:6 8.80703e-05
8 *29:7 8.80703e-05

*RES
1 *29:7 *44:SE 1.4
2 *29:6 *29:7 0.870005
3 *29:5 *29:6 1.4
4 *29:4 *29:5 0.99431
5 *29:3 *29:4 1.4
6 *29:2 *29:3 0.372859
7 *29:1 *29:2 1.4
8 *49:Y *29:1 1.1186
*END

*D_NET *30 0.000402238

*CONN
*I *45:C I *C 27.115 22.185 *L 0.00168 *D NAND3XL
*I *48:B I *C 29.725 22.185 *L 0.00165 *D OR2X1
*I *52:Y O *C 29.435 23.925 *L 0 *D NAND2XL

*CAP
1 *30:2 0.000112585
2 *30:4 0.000112585
3 *30:5 8.8534e-05
4 *30:6 8.8534e-05

*RES
1 *30:6 *52:Y 1.4
2 *30:5 *48:B 1.4
3 *30:5 *30:7 0.220714
4 *30:5 *30:6 0.870003
5 *30:4 *30:5 1.4
6 *30:2 *30:4 1.1186
7 *30:1 *45:C 1.4
8 *30:1 *30:2 1.4
9 *30:0 *30:1 0.220714
*END

*D_NET *31 0.000742166

*CONN
*I *50:Y O *C 23.635 21.605 *L 0 *D OR2X1
*I *41:A0 I *C 24.19 21.8225 *L 0.00161 *D OAI211XL
*I *45:B I *C 27.405 22.185 *L 0.00166 *D NAND3XL
*I *47:AN I *C 27.985 18.995 *L 0.00178 *D NAND2BX1

*CAP
1 *50:Y 1.40533e-05
2 *31:3 0.000175745
3 *31:4 4.21598e-05
4 *31:5 0.000175745
5 *31:6 4.21598e-05
6 *31:7 5.05909e-05
7 *41:A0 1.40533e-05
8 *31:9 2.52954e-05
9 *31:10 5.05909e-05
10 *31:12 8.8534e-05
11 *31:13 6.32386e-05

*RES
1 *31:13 *47:AN 1.4
2 *31:12 *31:13 0.621431
3 *31:10 *31:12 0.248572
4 *31:9 *45:B 1.4
5 *31:7 *31:10 0.248572
6 *31:7 *31:9 0.248572
7 *31:6 *41:A0 0.124283
8 *31:5 *31:7 1.4
9 *31:4 *31:6 0.248567
10 *31:3 *31:5 1.61571
11 *50:Y *31:4 0.124283
12 *31:1 *31:3 1.4
13 *31:1 *50:Y 1.4
14 *31:0 *31:1 0.220714
*END

*D_NET *32 0.000264663

*CONN
*I *41:B0 I *C 24.795 21.895 *L 0.0017 *D OAI211XL
*I *45:Y O *C 26.825 21.605 *L 0 *D NAND3XL

*CAP
1 *32:1 2.6866e-05
2 *32:2 6.7165e-05
3 *32:3 5.3732e-05
4 *32:4 2.6866e-05
5 *32:5 1.3433e-05
6 *32:6 3.83003e-05
7 *45:Y 3.83003e-05

*RES
1 *32:6 *45:Y 0.372864
2 *32:5 *32:6 1.4
3 *32:4 *32:5 0.124288
4 *32:3 *32:4 0.124288
5 *32:2 *32:3 0.372863
6 *32:1 *32:2 0.248575
7 *41:B0 *32:1 1.4
*END

*D_NET *33 0.000830602

*CONN
*I *42:B1 I *C 26.535 14.065 *L 0.00282 *D OAI22X1
*I *43:A I *C 28.855 14.065 *L 0.00157 *D NAND2XL
*I *47:Y O *C 28.855 18.415 *L 0 *D NAND2BX1

*CAP
1 *42:B1 2.50189e-05
2 *33:1 2.50189e-05
3 *33:2 2.52954e-05
4 *33:3 2.52954e-05
5 *33:4 0.000100076
6 *33:5 0.000137604
7 *33:6 3.75284e-05
8 *33:7 6.32386e-05
9 *33:8 0.000139125
10 *33:9 6.32386e-05
11 *33:10 0.000139125
12 *33:12 2.50189e-05
13 *47:Y 2.50189e-05

*RES
1 *33:12 *47:Y 0.248578
2 *33:10 *33:12 1.4
3 *33:9 *43:A 1.4
4 *33:8 *33:10 1.36715
5 *33:7 *33:9 0.621431
6 *33:6 *33:8 1.4
7 *33:5 *33:7 1.4
8 *33:5 *33:6 0.372866
9 *33:4 *33:5 0.99431
10 *33:3 *33:4 1.4
11 *33:2 *33:3 0.248572
12 *33:1 *33:2 1.4
13 *42:B1 *33:1 0.248578
*END

*D_NET *34 0.000328841

*CONN
*I *43:Y O *C 28.275 13.485 *L 0 *D NAND2XL
*I *40:SE I *C 28.855 16.965 *L 0.00488 *D SDFFRHQX1

*CAP
1 *34:1 7.58863e-05
2 *34:2 0.000126477
3 *34:3 8.8534e-05
4 *34:4 3.79432e-05

*RES
1 *34:4 *40:SE 1.4
2 *34:3 *34:4 0.372859
3 *34:2 *34:3 0.497145
4 *34:1 *34:2 0.745717
5 *43:Y *34:1 1.4
*END

*D_NET *35 0.00106755

*CONN
*I *42:A1 I *C 27.115 14.065 *L 0.00277 *D OAI22X1
*I *43:B I *C 28.275 14.065 *L 0.00167 *D NAND2XL
*I *48:Y O *C 28.275 21.605 *L 0 *D OR2X1
*I *41:C0 I *C 25.085 21.895 *L 0.0017 *D OAI211XL

*CAP
1 *35:2 5.00378e-05
2 *35:4 5.00378e-05
3 *35:5 0.000328841
4 *35:7 0.000328841
5 *35:10 6.25473e-05
6 *35:12 7.50568e-05
7 *35:15 7.89163e-05
8 *35:16 6.64068e-05
9 *35:17 1.3433e-05
10 *35:18 1.3433e-05

*RES
1 *35:18 *41:C0 1.4
2 *35:17 *35:18 0.124288
3 *35:16 *35:17 1.4
4 *35:15 *35:16 0.621431
5 *35:12 *35:15 0.124289
6 *35:11 *35:14 0.220714
7 *35:11 *48:Y 1.4
8 *35:10 *35:12 0.621444
9 *35:10 *35:11 1.4
10 *35:7 *35:10 1.4
11 *35:6 *43:B 1.4
12 *35:6 *35:8 0.220714
13 *35:5 *35:7 3.23144
14 *35:4 *35:6 1.4
15 *35:4 *35:5 1.4
16 *35:2 *35:4 0.497155
17 *35:1 *42:A1 1.4
18 *35:1 *35:2 1.4
19 *35:0 *35:1 0.03
*END

*D_NET *36 0.000252954

*CONN
*I *42:Y O *C 26.825 14.645 *L 0 *D OAI22X1
*I *38:SE I *C 27.115 11.745 *L 0.00488 *D SDFFRHQX1

*CAP
1 *36:0 5.05909e-05
2 *36:1 2.52954e-05
3 *36:2 0.000101182
4 *36:4 7.58863e-05

*RES
1 *36:4 *38:SE 1.4
2 *36:2 *36:4 0.745717
3 *36:1 *42:Y 1.4
4 *36:0 *36:2 0.248572
5 *36:0 *36:1 0.248572
*END

*D_NET *37 0.000214928

*CONN
*I *39:D I *C 25.085 18.995 *L 0.00232 *D DFFRHQX1
*I *41:Y O *C 24.795 21.315 *L 0 *D OAI211XL

*CAP
1 *37:1 0.000107464
2 *37:2 0.000107464

*RES
1 *37:2 *41:Y 1.4
2 *37:1 *37:2 0.994302
3 *39:D *37:1 1.4
*END
